DER-SmartCampus/subestacao_VLN_Node.Txt

LINE-GROUND and LINE-LINE VOLTAGES BY BUS & NODE

Bus                   Node    VLN (kV)   Angle      pu     Base kV    Node-Node   VLL (kV)  Angle      pu

SOURCEBUS ........... 1       13.334 /_    0.0   0.99976    23.100        1-2     23.095 /_   30.0   0.99977
   -                  2       13.334 /_ -120.0   0.99979    23.100        2-3     23.095 /_  -90.0    0.9998
   -                  3       13.334 /_  120.0   0.99979    23.100        3-1     23.095 /_  150.0   0.99977
BUST1 ............... 1       3.7693 /_  -31.3   0.98917     6.600        1-2     6.5221 /_   -1.3    0.9882
   -                  2       3.7665 /_ -151.2   0.98846     6.600        2-3     6.5319 /_ -121.2   0.98969
   -                  3       3.7749 /_   88.7   0.99066     6.600        3-1     6.5367 /_  118.7    0.9904
BUST2 ............... 1       3.8004 /_  -30.7   0.99734     6.600        1-2     6.5798 /_   -0.6   0.99694
   -                  2       3.7997 /_ -150.6   0.99716     6.600        2-3     6.5853 /_ -120.6   0.99778
   -                  3       3.8035 /_   89.4   0.99817     6.600        3-1     6.5865 /_  119.3   0.99795
BUSCARGA_REITORIA ... 1      0.12642 /_  -31.1    0.9953     0.220        1-2    0.21893 /_   -1.1   0.99513
   -                  2      0.12641 /_ -151.1   0.99526     0.220        2-3    0.21907 /_ -121.1   0.99579
   -                  3       0.1265 /_   88.9   0.99596     0.220        3-1    0.21903 /_  118.9    0.9956
BUS1_C1 ............. 1       3.7689 /_  -31.3   0.98908     6.600        1-2     6.5215 /_   -1.3   0.98811
   -                  2       3.7662 /_ -151.2   0.98837     6.600        2-3     6.5314 /_ -121.2    0.9896
   -                  3       3.7746 /_   88.7   0.99058     6.600        3-1     6.5361 /_  118.7   0.99031
BUS2_C1 ............. 1       3.7686 /_  -31.4   0.98901     6.600        1-2      6.521 /_   -1.3   0.98804
   -                  2       3.7659 /_ -151.2    0.9883     6.600        2-3      6.531 /_ -121.2   0.98954
   -                  3       3.7744 /_   88.7   0.99051     6.600        3-1     6.5356 /_  118.7   0.99025
BUS3_C1 ............. 1       3.7678 /_  -31.4    0.9888     6.600        1-2     6.5197 /_   -1.3   0.98783
   -                  2       3.7652 /_ -151.2    0.9881     6.600        2-3     6.5297 /_ -121.2   0.98935
   -                  3       3.7736 /_   88.7   0.99032     6.600        3-1     6.5343 /_  118.7   0.99004
BUS4_C1 ............. 1       3.7664 /_  -31.4   0.98843     6.600        1-2     6.5173 /_   -1.3   0.98747
   -                  2       3.7639 /_ -151.2   0.98776     6.600        2-3     6.5275 /_ -121.2   0.98902
   -                  3       3.7723 /_   88.7   0.98998     6.600        3-1      6.532 /_  118.7   0.98969
BUS5_C1 ............. 1       3.7651 /_  -31.4   0.98808     6.600        1-2      6.515 /_   -1.3   0.98712
   -                  2       3.7626 /_ -151.2   0.98743     6.600        2-3     6.5254 /_ -121.2    0.9887
   -                  3       3.7711 /_   88.7   0.98966     6.600        3-1     6.5297 /_  118.7   0.98935
BUS6_C1 ............. 1       3.7638 /_  -31.4   0.98774     6.600        1-2     6.5127 /_   -1.3   0.98678
   -                  2       3.7614 /_ -151.2    0.9871     6.600        2-3     6.5234 /_ -121.2   0.98839
   -                  3       3.7699 /_   88.7   0.98935     6.600        3-1     6.5275 /_  118.7   0.98902
BUS7_C1 ............. 1       3.7618 /_  -31.4   0.98721     6.600        1-2     6.5093 /_   -1.3   0.98625
   -                  2       3.7595 /_ -151.2    0.9866     6.600        2-3     6.5202 /_ -121.2   0.98791
   -                  3       3.7681 /_   88.7   0.98886     6.600        3-1     6.5242 /_  118.7   0.98851
BUS8_C1 ............. 1       3.7603 /_  -31.4   0.98683     6.600        1-2     6.5068 /_   -1.3   0.98588
   -                  2       3.7581 /_ -151.2   0.98625     6.600        2-3     6.5179 /_ -121.2   0.98757
   -                  3       3.7668 /_   88.7   0.98852     6.600        3-1     6.5218 /_  118.7   0.98815
BUS9_C1 ............. 1       3.7574 /_  -31.4   0.98607     6.600        1-2     6.5019 /_   -1.3   0.98513
   -                  2       3.7554 /_ -151.2   0.98554     6.600        2-3     6.5134 /_ -121.2   0.98689
   -                  3       3.7641 /_   88.7   0.98783     6.600        3-1      6.517 /_  118.7   0.98742
SOURCEBUS_ICB ....... 1       3.7565 /_  -31.4   0.98583     6.600        1-2     6.5003 /_   -1.3   0.98489
   -                  2       3.7545 /_ -151.2   0.98531     6.600        2-3      6.512 /_ -121.2   0.98667
   -                  3       3.7633 /_   88.7   0.98761     6.600        3-1     6.5155 /_  118.7    0.9872
BUSCARGA_ICB ........ 1      0.12417 /_  -62.0   0.97757     0.220        1-2    0.21489 /_  -32.1   0.97677
   -                  2       0.1238 /_  177.9   0.97465     0.220        2-3    0.21449 /_ -151.9   0.97496
   -                  3       0.1243 /_   58.2   0.97857     0.220        3-1    0.21539 /_   88.1   0.97906
BUS10_C1 ............ 1       3.7557 /_  -31.4    0.9856     6.600        1-2     6.4988 /_   -1.3   0.98467
   -                  2       3.7537 /_ -151.2    0.9851     6.600        2-3     6.5106 /_ -121.2   0.98646
   -                  3       3.7625 /_   88.7   0.98739     6.600        3-1      6.514 /_  118.6   0.98696
BUS11_C1 ............ 1       3.7547 /_  -31.4   0.98534     6.600        1-2     6.4971 /_   -1.3   0.98441
   -                  2       3.7528 /_ -151.2   0.98485     6.600        2-3     6.5091 /_ -121.2   0.98622
   -                  3       3.7615 /_   88.7   0.98715     6.600        3-1     6.5123 /_  118.6   0.98671
BUS12_C1 ............ 1       3.7534 /_  -31.4     0.985     6.600        1-2     6.4949 /_   -1.3   0.98408
   -                  2       3.7516 /_ -151.2   0.98453     6.600        2-3      6.507 /_ -121.2   0.98591
   -                  3       3.7604 /_   88.7   0.98684     6.600        3-1     6.5101 /_  118.6   0.98638
SOURCEBUS_CGCO ...... 1       3.7514 /_  -31.4   0.98447     6.600        1-2     6.4915 /_   -1.3   0.98357
   -                  2       3.7496 /_ -151.2   0.98402     6.600        2-3     6.5035 /_ -121.2   0.98538
   -                  3       3.7582 /_   88.7   0.98628     6.600        3-1     6.5065 /_  118.6   0.98583
SECUNDARIO_CGCO1 .... 1      0.12472 /_  -62.2   0.98189     0.220        1-2    0.21559 /_  -32.1   0.97994
   -                  2      0.12457 /_  178.1   0.98077     0.220        2-3    0.21592 /_ -151.9   0.98145
   -                  3      0.12466 /_   58.0   0.98144     0.220        3-1     0.2162 /_   87.9   0.98271
BUSCARGA_CGCO2 ...... 1      0.12519 /_  -62.2   0.98561     0.220        1-2     0.2167 /_  -32.3   0.98498
   -                  2      0.12489 /_  177.7   0.98324     0.220        2-3    0.21629 /_ -152.1   0.98311
   -                  3      0.12513 /_   57.9   0.98518     0.220        3-1     0.2169 /_   87.9   0.98593
BUSCARGA_CGCO1 ...... 1      0.12472 /_  -62.2   0.98189     0.220        1-2    0.21559 /_  -32.1   0.97994
   -                  2      0.12457 /_  178.1   0.98077     0.220        2-3    0.21592 /_ -151.9   0.98145
   -                  3      0.12466 /_   58.0   0.98144     0.220        3-1     0.2162 /_   87.9   0.98271
BUS13_C1 ............ 1       3.7524 /_  -31.4   0.98475     6.600        1-2     6.4933 /_   -1.3   0.98383
   -                  2       3.7507 /_ -151.2    0.9843     6.600        2-3     6.5056 /_ -121.2    0.9857
   -                  3       3.7595 /_   88.7   0.98662     6.600        3-1     6.5086 /_  118.6   0.98615
BUS14_C1 ............ 1       3.7515 /_  -31.4    0.9845     6.600        1-2     6.4917 /_   -1.3   0.98358
   -                  2       3.7498 /_ -151.2   0.98408     6.600        2-3     6.5042 /_ -121.2   0.98549
   -                  3       3.7587 /_   88.7    0.9864     6.600        3-1      6.507 /_  118.6   0.98591
BUS15_C1 ............ 1       3.7511 /_  -31.4   0.98441     6.600        1-2      6.491 /_   -1.3   0.98349
   -                  2       3.7495 /_ -151.2   0.98398     6.600        2-3     6.5037 /_ -121.2    0.9854
   -                  3       3.7584 /_   88.7   0.98632     6.600        3-1     6.5064 /_  118.6   0.98582
BUSCARGA_ECOMPUTACAO  1      0.12489 /_  -61.6   0.98323     0.220        1-2    0.21612 /_  -31.7   0.98238
   -                  2       0.1247 /_  178.4   0.98174     0.220        2-3    0.21587 /_ -151.5   0.98121
   -                  3      0.12487 /_   58.6   0.98308     0.220        3-1    0.21658 /_   88.5   0.98445
BUS16_C1 ............ 1       3.7502 /_  -31.4   0.98416     6.600        1-2     6.4894 /_   -1.3   0.98325
   -                  2       3.7486 /_ -151.2   0.98376     6.600        2-3     6.5023 /_ -121.2   0.98519
   -                  3       3.7576 /_   88.7   0.98611     6.600        3-1     6.5049 /_  118.6   0.98559
BUS17_C1 ............ 1       3.7494 /_  -31.4   0.98397     6.600        1-2     6.4882 /_   -1.3   0.98305
   -                  2        3.748 /_ -151.2   0.98358     6.600        2-3     6.5012 /_ -121.2   0.98503
   -                  3       3.7569 /_   88.7   0.98594     6.600        3-1     6.5037 /_  118.6   0.98541
BUS18_C1 ............ 1       3.7488 /_  -31.4    0.9838     6.600        1-2     6.4871 /_   -1.3   0.98289
   -                  2       3.7474 /_ -151.2   0.98343     6.600        2-3     6.5002 /_ -121.2   0.98488
   -                  3       3.7564 /_   88.7   0.98579     6.600        3-1     6.5027 /_  118.6   0.98525
BUSCARGA_MODELAGEMCOM 1      0.12461 /_  -62.0   0.98107     0.220        1-2    0.21556 /_  -32.1   0.97982
   -                  2      0.12422 /_  177.9   0.97798     0.220        2-3    0.21523 /_ -151.9    0.9783
   -                  3      0.12457 /_   58.1    0.9807     0.220        3-1    0.21596 /_   88.1   0.98162
BUS19_C1 ............ 1       3.7479 /_  -31.4   0.98358     6.600        1-2     6.4856 /_   -1.3   0.98267
   -                  2       3.7466 /_ -151.2   0.98323     6.600        2-3      6.499 /_ -121.2   0.98469
   -                  3       3.7556 /_   88.7    0.9856     6.600        3-1     6.5013 /_  118.6   0.98504
BUS20_C1 ............ 1       3.7472 /_  -31.4   0.98338     6.600        1-2     6.4844 /_   -1.3   0.98248
   -                  2       3.7459 /_ -151.2   0.98305     6.600        2-3     6.4979 /_ -121.2   0.98453
   -                  3        3.755 /_   88.7   0.98543     6.600        3-1     6.5001 /_  118.6   0.98486
BUS21_C1 ............ 1       3.7464 /_  -31.4   0.98319     6.600        1-2     6.4831 /_   -1.3   0.98229
   -                  2       3.7452 /_ -151.2   0.98287     6.600        2-3     6.4968 /_ -121.2   0.98436
   -                  3       3.7543 /_   88.7   0.98526     6.600        3-1     6.4988 /_  118.6   0.98467
BUS22_C1 ............ 1       3.7457 /_  -31.4     0.983     6.600        1-2     6.4818 /_   -1.3    0.9821
   -                  2       3.7446 /_ -151.2    0.9827     6.600        2-3     6.4957 /_ -121.2    0.9842
   -                  3       3.7537 /_   88.7   0.98509     6.600        3-1     6.4977 /_  118.6   0.98449
SOURCEBUS_ENGENHARIA  1       3.7452 /_  -31.4   0.98286     6.600        1-2      6.481 /_   -1.3   0.98197
   -                  2       3.7441 /_ -151.2   0.98258     6.600        2-3     6.4949 /_ -121.2   0.98408
   -                  3       3.7532 /_   88.7   0.98497     6.600        3-1     6.4968 /_  118.6   0.98436
SECUNDARIO_ENGENHARIA 1      0.12476 /_  -61.8   0.98225     0.220        1-2    0.21573 /_  -31.8   0.98058
   -                  2      0.12447 /_  178.3   0.97994     0.220        2-3    0.21572 /_ -151.6   0.98054
   -                  3      0.12482 /_   58.5   0.98271     0.220        3-1    0.21643 /_   88.3   0.98378
BUSCARGA_ENGENHARIA . 1      0.12476 /_  -61.8   0.98225     0.220        1-2    0.21573 /_  -31.8   0.98058
   -                  2      0.12447 /_  178.3   0.97994     0.220        2-3    0.21572 /_ -151.6   0.98054
   -                  3      0.12482 /_   58.5   0.98271     0.220        3-1    0.21643 /_   88.3   0.98378
BUS23_C1 ............ 1       3.7452 /_  -31.4   0.98287     6.600        1-2      6.481 /_   -1.3   0.98197
   -                  2       3.7441 /_ -151.2   0.98258     6.600        2-3      6.495 /_ -121.2   0.98408
   -                  3       3.7533 /_   88.7   0.98498     6.600        3-1     6.4969 /_  118.6   0.98437
BUS24_C1 ............ 1       3.7447 /_  -31.4   0.98273     6.600        1-2     6.4801 /_   -1.3   0.98183
   -                  2       3.7436 /_ -151.2   0.98245     6.600        2-3     6.4942 /_ -121.2   0.98397
   -                  3       3.7528 /_   88.7   0.98486     6.600        3-1      6.496 /_  118.6   0.98424
SOURCEBUS_RU ........ 1       3.7445 /_  -31.4   0.98269     6.600        1-2     6.4798 /_   -1.3   0.98179
   -                  2       3.7435 /_ -151.2    0.9824     6.600        2-3     6.4939 /_ -121.2   0.98392
   -                  3       3.7527 /_   88.7   0.98482     6.600        3-1     6.4957 /_  118.6    0.9842
BUSCARGA_RU ......... 1      0.12462 /_  -61.7   0.98116     0.220        1-2    0.21544 /_  -31.7   0.97929
   -                  2      0.12428 /_  178.4   0.97841     0.220        2-3    0.21537 /_ -151.5   0.97897
   -                  3      0.12442 /_   58.4   0.97953     0.220        3-1    0.21578 /_   88.4   0.98084
BUS25_C1 ............ 1       3.7442 /_  -31.4   0.98261     6.600        1-2     6.4793 /_   -1.3   0.98171
   -                  2       3.7432 /_ -151.2   0.98234     6.600        2-3     6.4935 /_ -121.2   0.98387
   -                  3       3.7524 /_   88.7   0.98476     6.600        3-1     6.4953 /_  118.6   0.98413
SOURCEBUS_BIBLIOTECA  1       3.7437 /_  -31.4   0.98247     6.600        1-2     6.4784 /_   -1.3   0.98158
   -                  2       3.7427 /_ -151.2   0.98222     6.600        2-3     6.4927 /_ -121.2   0.98374
   -                  3       3.7519 /_   88.7   0.98463     6.600        3-1     6.4944 /_  118.6     0.984
BUSCARGA_BIBLIOTECA . 1      0.12501 /_  -61.4   0.98418     0.220        1-2    0.21622 /_  -31.4    0.9828
   -                  2      0.12472 /_  178.6   0.98191     0.220        2-3    0.21617 /_ -151.3   0.98261
   -                  3        0.125 /_   58.7   0.98414     0.220        3-1    0.21666 /_   88.7   0.98482
SOURCEBUS_CBR ....... 1       3.7433 /_  -31.4   0.98237     6.600        1-2     6.4778 /_   -1.3   0.98148
   -                  2       3.7424 /_ -151.2   0.98212     6.600        2-3     6.4921 /_ -121.2   0.98365
   -                  3       3.7516 /_   88.7   0.98453     6.600        3-1     6.4937 /_  118.6    0.9839
BUSCARGA_CBR ........ 1      0.12492 /_  -61.7    0.9835     0.220        1-2    0.21598 /_  -31.7   0.98173
   -                  2      0.12462 /_  178.4   0.98114     0.220        2-3    0.21596 /_ -151.5   0.98163
   -                  3      0.12487 /_   58.5   0.98309     0.220        3-1    0.21656 /_   88.4   0.98437
BUS26_C1 ............ 1       3.7438 /_  -31.4    0.9825     6.600        1-2     6.4786 /_   -1.3    0.9816
   -                  2       3.7429 /_ -151.2   0.98224     6.600        2-3     6.4929 /_ -121.2   0.98378
   -                  3       3.7521 /_   88.7   0.98467     6.600        3-1     6.4946 /_  118.6   0.98403
BUSGERADOR_ENGENHARIA 1       0.1241 /_  -61.2   0.97701     0.220        1-2    0.21519 /_  -31.1   0.97815
   -                  2      0.12444 /_  178.9    0.9797     0.220        2-3    0.21567 /_ -151.1   0.98033
   -                  3      0.12459 /_   58.9   0.98093     0.220        3-1    0.21542 /_   88.8   0.97916
BUS27_C1 ............ 1       3.7435 /_  -31.4   0.98241     6.600        1-2      6.478 /_   -1.3   0.98152
   -                  2       3.7426 /_ -151.2   0.98217     6.600        2-3     6.4925 /_ -121.2   0.98371
   -                  3       3.7518 /_   88.7    0.9846     6.600        3-1     6.4941 /_  118.6   0.98395
BUS28_C1 ............ 1       3.7431 /_  -31.4   0.98232     6.600        1-2     6.4774 /_   -1.3   0.98142
   -                  2       3.7422 /_ -151.2   0.98208     6.600        2-3      6.492 /_ -121.2   0.98364
   -                  3       3.7516 /_   88.7   0.98453     6.600        3-1     6.4935 /_  118.6   0.98387
BUSCARGA_IAD ........ 1      0.12502 /_  -61.6   0.98425     0.220        1-2    0.21614 /_  -31.6   0.98244
   -                  2      0.12469 /_  178.5   0.98171     0.220        2-3    0.21612 /_ -151.5   0.98238
   -                  3      0.12498 /_   58.5   0.98394     0.220        3-1    0.21672 /_   88.5   0.98508
BUS29_C1 ............ 1       3.7428 /_  -31.4   0.98224     6.600        1-2     6.4769 /_   -1.3   0.98135
   -                  2        3.742 /_ -151.2   0.98202     6.600        2-3     6.4916 /_ -121.2   0.98358
   -                  3       3.7513 /_   88.7   0.98447     6.600        3-1     6.4931 /_  118.6    0.9838
BUS30_C1 ............ 1       3.7428 /_  -31.4   0.98224     6.600        1-2     6.4769 /_   -1.3   0.98134
   -                  2        3.742 /_ -151.2   0.98201     6.600        2-3     6.4916 /_ -121.2   0.98357
   -                  3       3.7513 /_   88.7   0.98447     6.600        3-1     6.4931 /_  118.6    0.9838
BUS31_C1 ............ 1       3.7428 /_  -31.4   0.98223     6.600        1-2     6.4768 /_   -1.3   0.98134
   -                  2       3.7419 /_ -151.2     0.982     6.600        2-3     6.4915 /_ -121.2   0.98357
   -                  3       3.7513 /_   88.7   0.98446     6.600        3-1      6.493 /_  118.6   0.98379
BUS32_C1 ............ 1       3.7428 /_  -31.4   0.98222     6.600        1-2     6.4768 /_   -1.3   0.98133
   -                  2       3.7419 /_ -151.2     0.982     6.600        2-3     6.4915 /_ -121.2   0.98356
   -                  3       3.7513 /_   88.7   0.98445     6.600        3-1      6.493 /_  118.6   0.98379
BUS33_C1 ............ 1       3.7427 /_  -31.4   0.98221     6.600        1-2     6.4767 /_   -1.3   0.98132
   -                  2       3.7419 /_ -151.2   0.98199     6.600        2-3     6.4914 /_ -121.2   0.98355
   -                  3       3.7512 /_   88.7   0.98444     6.600        3-1     6.4929 /_  118.6   0.98377
BUSCARGA_CRITT ...... 1      0.12492 /_  -61.6   0.98351     0.220        1-2    0.21599 /_  -31.6    0.9818
   -                  2      0.12461 /_  178.5   0.98108     0.220        2-3    0.21601 /_ -151.4   0.98187
   -                  3      0.12489 /_   58.6   0.98327     0.220        3-1    0.21652 /_   88.5    0.9842
BUS34_C1 ............ 1       3.7427 /_  -31.4    0.9822     6.600        1-2     6.4766 /_   -1.3   0.98131
   -                  2       3.7419 /_ -151.2   0.98198     6.600        2-3     6.4914 /_ -121.2   0.98355
   -                  3       3.7512 /_   88.7   0.98444     6.600        3-1     6.4929 /_  118.6   0.98377
BUS35_C1 ............ 1       3.7423 /_  -31.4   0.98209     6.600        1-2     6.4759 /_   -1.3   0.98119
   -                  2       3.7415 /_ -151.2   0.98188     6.600        2-3     6.4909 /_ -121.2   0.98346
   -                  3       3.7509 /_   88.7   0.98436     6.600        3-1     6.4922 /_  118.6   0.98367
BUS36_C1 ............ 1       3.7421 /_  -31.4   0.98204     6.600        1-2     6.4755 /_   -1.3   0.98114
   -                  2       3.7413 /_ -151.2   0.98183     6.600        2-3     6.4906 /_ -121.2   0.98342
   -                  3       3.7508 /_   88.7   0.98432     6.600        3-1     6.4919 /_  118.6   0.98362
BUS37_C1 ............ 1       3.7417 /_  -31.4   0.98195     6.600        1-2      6.475 /_   -1.3   0.98105
   -                  2        3.741 /_ -151.2   0.98176     6.600        2-3     6.4902 /_ -121.2   0.98336
   -                  3       3.7505 /_   88.7   0.98425     6.600        3-1     6.4914 /_  118.6   0.98355
BUS38_C1 ............ 1       3.7414 /_  -31.4   0.98186     6.600        1-2     6.4744 /_   -1.3   0.98097
   -                  2       3.7407 /_ -151.2   0.98168     6.600        2-3     6.4897 /_ -121.2   0.98329
   -                  3       3.7503 /_   88.7   0.98419     6.600        3-1     6.4909 /_  118.6   0.98348
BUS39_C1 ............ 1       3.7411 /_  -31.4   0.98178     6.600        1-2     6.4738 /_   -1.3   0.98088
   -                  2       3.7404 /_ -151.2   0.98161     6.600        2-3     6.4893 /_ -121.2   0.98323
   -                  3         3.75 /_   88.7   0.98412     6.600        3-1     6.4904 /_  118.6    0.9834
BUS40_C1 ............ 1       3.7408 /_  -31.4   0.98169     6.600        1-2     6.4732 /_   -1.3    0.9808
   -                  2       3.7401 /_ -151.2   0.98153     6.600        2-3     6.4889 /_ -121.2   0.98316
   -                  3       3.7498 /_   88.7   0.98406     6.600        3-1       6.49 /_  118.6   0.98333
BUS41_C1 ............ 1       3.7404 /_  -31.4   0.98161     6.600        1-2     6.4727 /_   -1.3   0.98071
   -                  2       3.7398 /_ -151.2   0.98146     6.600        2-3     6.4885 /_ -121.2    0.9831
   -                  3       3.7495 /_   88.7     0.984     6.600        3-1     6.4895 /_  118.6   0.98325
BUS42_C1 ............ 1       3.7401 /_  -31.4   0.98152     6.600        1-2     6.4721 /_   -1.3   0.98062
   -                  2       3.7396 /_ -151.2   0.98138     6.600        2-3      6.488 /_ -121.2   0.98303
   -                  3       3.7493 /_   88.7   0.98393     6.600        3-1      6.489 /_  118.6   0.98318
BUS43_C1 ............ 1       3.7396 /_  -31.4    0.9814     6.600        1-2     6.4713 /_   -1.3    0.9805
   -                  2       3.7392 /_ -151.2   0.98127     6.600        2-3     6.4874 /_ -121.2   0.98294
   -                  3       3.7489 /_   88.7   0.98384     6.600        3-1     6.4883 /_  118.6   0.98307
BUS44_C1 ............ 1       3.7391 /_  -31.4   0.98127     6.600        1-2     6.4704 /_   -1.3   0.98037
   -                  2       3.7387 /_ -151.2   0.98115     6.600        2-3     6.4868 /_ -121.2   0.98284
   -                  3       3.7486 /_   88.7   0.98374     6.600        3-1     6.4875 /_  118.6   0.98295
BUS45_C1 ............ 1       3.7386 /_  -31.4   0.98113     6.600        1-2     6.4695 /_   -1.3   0.98023
   -                  2       3.7382 /_ -151.2   0.98104     6.600        2-3     6.4861 /_ -121.2   0.98274
   -                  3       3.7482 /_   88.7   0.98364     6.600        3-1     6.4867 /_  118.6   0.98284
BUS46_C1 ............ 1       3.7381 /_  -31.4     0.981     6.600        1-2     6.4686 /_   -1.3    0.9801
   -                  2       3.7378 /_ -151.2   0.98092     6.600        2-3     6.4854 /_ -121.2   0.98264
   -                  3       3.7478 /_   88.7   0.98354     6.600        3-1      6.486 /_  118.6   0.98272
BUS47_C1 ............ 1       3.7375 /_  -31.4   0.98084     6.600        1-2     6.4676 /_   -1.3   0.97993
   -                  2       3.7373 /_ -151.2   0.98078     6.600        2-3     6.4846 /_ -121.2   0.98252
   -                  3       3.7473 /_   88.7   0.98342     6.600        3-1      6.485 /_  118.6   0.98258
BUS48_C1 ............ 1       3.7368 /_  -31.4   0.98066     6.600        1-2     6.4664 /_   -1.3   0.97976
   -                  2       3.7367 /_ -151.2   0.98062     6.600        2-3     6.4838 /_ -121.2   0.98239
   -                  3       3.7468 /_   88.7   0.98329     6.600        3-1      6.484 /_  118.6   0.98243
BUS49_C1 ............ 1       3.7362 /_  -31.4    0.9805     6.600        1-2     6.4653 /_   -1.3    0.9796
   -                  2       3.7361 /_ -151.2   0.98048     6.600        2-3     6.4829 /_ -121.2   0.98226
   -                  3       3.7464 /_   88.7   0.98317     6.600        3-1     6.4831 /_  118.6   0.98229
BUS50_C1 ............ 1       3.7355 /_  -31.4   0.98032     6.600        1-2     6.4641 /_   -1.3   0.97941
   -                  2       3.7355 /_ -151.2   0.98032     6.600        2-3      6.482 /_ -121.2   0.98213
   -                  3       3.7459 /_   88.7   0.98303     6.600        3-1     6.4821 /_  118.6   0.98213
BUS51_C1 ............ 1        3.735 /_  -31.4   0.98018     6.600        1-2     6.4632 /_   -1.3   0.97927
   -                  2        3.735 /_ -151.2   0.98019     6.600        2-3     6.4813 /_ -121.2   0.98202
   -                  3       3.7455 /_   88.7   0.98293     6.600        3-1     6.4813 /_  118.6   0.98201
BUS52_C1 ............ 1       3.7349 /_  -31.4   0.98016     6.600        1-2      6.463 /_   -1.3   0.97925
   -                  2        3.735 /_ -151.2   0.98017     6.600        2-3     6.4812 /_ -121.2     0.982
   -                  3       3.7454 /_   88.7   0.98291     6.600        3-1     6.4811 /_  118.6   0.98199
SOURCEBUS_FAEFID1 ... 1       3.7347 /_  -31.4    0.9801     6.600        1-2     6.4627 /_   -1.3   0.97919
   -                  2       3.7348 /_ -151.2   0.98012     6.600        2-3     6.4809 /_ -121.2   0.98196
   -                  3       3.7452 /_   88.7   0.98286     6.600        3-1     6.4808 /_  118.6   0.98193
BUSCARGA_FAEFID1 .... 1      0.12431 /_  -61.9   0.97869     0.220        1-2    0.21443 /_  -31.9    0.9747
   -                  2      0.12356 /_  178.3   0.97278     0.220        2-3    0.21418 /_ -151.6   0.97355
   -                  3      0.12396 /_   58.4   0.97589     0.220        3-1    0.21541 /_   88.3   0.97911
BUS53_C1 ............ 1       3.7346 /_  -31.4   0.98008     6.600        1-2     6.4625 /_   -1.3   0.97917
   -                  2       3.7347 /_ -151.2   0.98011     6.600        2-3     6.4808 /_ -121.2   0.98195
   -                  3       3.7452 /_   88.7   0.98285     6.600        3-1     6.4807 /_  118.6   0.98192
BUS54_C1 ............ 1       3.7337 /_  -31.4   0.97985     6.600        1-2      6.461 /_   -1.3   0.97894
   -                  2       3.7339 /_ -151.2    0.9799     6.600        2-3     6.4797 /_ -121.2   0.98177
   -                  3       3.7445 /_   88.7   0.98268     6.600        3-1     6.4794 /_  118.6   0.98173
BUSCARGA_FAEFID2 .... 1      0.12347 /_  -62.0   0.97207     0.220        1-2     0.2132 /_  -32.2    0.9691
   -                  2      0.12246 /_  177.8   0.96411     0.220        2-3    0.21257 /_ -151.8   0.96622
   -                  3      0.12353 /_   58.3   0.97254     0.220        3-1    0.21415 /_   88.1    0.9734
BUS1_C2 ............. 1       3.8001 /_  -30.7   0.99727     6.600        1-2     6.5794 /_   -0.6   0.99688
   -                  2       3.7995 /_ -150.6   0.99711     6.600        2-3      6.585 /_ -120.6   0.99772
   -                  3       3.8033 /_   89.4   0.99811     6.600        3-1     6.5861 /_  119.3   0.99789
BUS55_C2 ............ 1       3.7999 /_  -30.7   0.99721     6.600        1-2      6.579 /_   -0.6   0.99682
   -                  2       3.7993 /_ -150.6   0.99705     6.600        2-3     6.5846 /_ -120.6   0.99767
   -                  3       3.8031 /_   89.4   0.99806     6.600        3-1     6.5857 /_  119.3   0.99783
BUS56_C2 ............ 1       3.7998 /_  -30.7   0.99718     6.600        1-2     6.5788 /_   -0.6   0.99679
   -                  2       3.7991 /_ -150.6   0.99702     6.600        2-3     6.5844 /_ -120.6   0.99763
   -                  3        3.803 /_   89.4   0.99802     6.600        3-1     6.5854 /_  119.3    0.9978
BUS57_C2 ............ 1       3.7994 /_  -30.7   0.99708     6.600        1-2     6.5782 /_   -0.6   0.99669
   -                  2       3.7988 /_ -150.6   0.99693     6.600        2-3     6.5838 /_ -120.6   0.99755
   -                  3       3.8026 /_   89.4   0.99794     6.600        3-1     6.5848 /_  119.3    0.9977
BUS58_C2 ............ 1       3.7991 /_  -30.7   0.99699     6.600        1-2     6.5776 /_   -0.6   0.99661
   -                  2       3.7985 /_ -150.6   0.99685     6.600        2-3     6.5833 /_ -120.6   0.99747
   -                  3       3.8023 /_   89.4   0.99786     6.600        3-1     6.5843 /_  119.3   0.99762
BUS59_C2 ............ 1       3.7987 /_  -30.7    0.9969     6.600        1-2      6.577 /_   -0.6   0.99652
   -                  2       3.7982 /_ -150.6   0.99676     6.600        2-3     6.5828 /_ -120.6   0.99739
   -                  3        3.802 /_   89.4   0.99777     6.600        3-1     6.5837 /_  119.3   0.99753
BUS60_C2 ............ 1       3.7981 /_  -30.7   0.99674     6.600        1-2      6.576 /_   -0.6   0.99636
   -                  2       3.7976 /_ -150.6   0.99661     6.600        2-3     6.5818 /_ -120.6   0.99724
   -                  3       3.8015 /_   89.4   0.99762     6.600        3-1     6.5827 /_  119.3   0.99737
BUS61_C2 ............ 1       3.7975 /_  -30.7   0.99658     6.600        1-2     6.5749 /_   -0.6    0.9962
   -                  2        3.797 /_ -150.6   0.99646     6.600        2-3     6.5808 /_ -120.6    0.9971
   -                  3       3.8009 /_   89.4   0.99748     6.600        3-1     6.5816 /_  119.3   0.99721
BUS62_C2 ............ 1       3.7968 /_  -30.7   0.99641     6.600        1-2     6.5739 /_   -0.6   0.99604
   -                  2       3.7964 /_ -150.6   0.99631     6.600        2-3     6.5799 /_ -120.6   0.99695
   -                  3       3.8003 /_   89.4   0.99733     6.600        3-1     6.5806 /_  119.3   0.99706
BUS63_C2 ............ 1       3.7962 /_  -30.7   0.99623     6.600        1-2     6.5727 /_   -0.7   0.99586
   -                  2       3.7958 /_ -150.6   0.99614     6.600        2-3     6.5788 /_ -120.6   0.99679
   -                  3       3.7997 /_   89.4   0.99716     6.600        3-1     6.5794 /_  119.3   0.99689
BUS64_C2 ............ 1       3.7955 /_  -30.7   0.99607     6.600        1-2     6.5716 /_   -0.7    0.9957
   -                  2       3.7952 /_ -150.6   0.99599     6.600        2-3     6.5779 /_ -120.6   0.99665
   -                  3       3.7991 /_   89.4   0.99702     6.600        3-1     6.5784 /_  119.3   0.99673
BUS65_C2 ............ 1        3.795 /_  -30.7   0.99592     6.600        1-2     6.5707 /_   -0.7   0.99555
   -                  2       3.7947 /_ -150.6   0.99585     6.600        2-3      6.577 /_ -120.6   0.99651
   -                  3       3.7986 /_   89.3   0.99688     6.600        3-1     6.5774 /_  119.3   0.99658
BUS68_C2 ............ 1       3.7943 /_  -30.7   0.99574     6.600        1-2     6.5695 /_   -0.7   0.99538
   -                  2       3.7941 /_ -150.6   0.99569     6.600        2-3     6.5759 /_ -120.6   0.99635
   -                  3        3.798 /_   89.3   0.99671     6.600        3-1     6.5763 /_  119.3   0.99641
BUS69_C2 ............ 1       3.7943 /_  -30.7   0.99574     6.600        1-2     6.5695 /_   -0.7   0.99538
   -                  2       3.7941 /_ -150.6   0.99569     6.600        2-3     6.5759 /_ -120.6   0.99635
   -                  3        3.798 /_   89.3   0.99671     6.600        3-1     6.5763 /_  119.3   0.99641
BUS70_C2 ............ 1       3.7943 /_  -30.7   0.99574     6.600        1-2     6.5695 /_   -0.7   0.99538
   -                  2       3.7941 /_ -150.6   0.99569     6.600        2-3     6.5759 /_ -120.6   0.99635
   -                  3        3.798 /_   89.3   0.99671     6.600        3-1     6.5763 /_  119.3   0.99641
BUS71_C2 ............ 1       3.7943 /_  -30.7   0.99574     6.600        1-2     6.5695 /_   -0.7   0.99538
   -                  2       3.7941 /_ -150.6   0.99569     6.600        2-3     6.5759 /_ -120.6   0.99635
   -                  3        3.798 /_   89.3   0.99671     6.600        3-1     6.5763 /_  119.3   0.99641
BUS72_C2 ............ 1       3.7943 /_  -30.7   0.99574     6.600        1-2     6.5695 /_   -0.7   0.99538
   -                  2       3.7941 /_ -150.6   0.99569     6.600        2-3     6.5759 /_ -120.6   0.99635
   -                  3        3.798 /_   89.3   0.99671     6.600        3-1     6.5763 /_  119.3   0.99641
BUS73_C2 ............ 1       3.7943 /_  -30.7   0.99574     6.600        1-2     6.5695 /_   -0.7   0.99538
   -                  2       3.7941 /_ -150.6   0.99569     6.600        2-3     6.5759 /_ -120.6   0.99635
   -                  3        3.798 /_   89.3   0.99671     6.600        3-1     6.5763 /_  119.3   0.99641
BUS74_C2 ............ 1       3.7943 /_  -30.7   0.99574     6.600        1-2     6.5695 /_   -0.7   0.99538
   -                  2       3.7941 /_ -150.6   0.99569     6.600        2-3     6.5759 /_ -120.6   0.99635
   -                  3        3.798 /_   89.3   0.99671     6.600        3-1     6.5763 /_  119.3   0.99641
BUS75_C2 ............ 1       3.7943 /_  -30.7   0.99574     6.600        1-2     6.5695 /_   -0.7   0.99538
   -                  2       3.7941 /_ -150.6   0.99569     6.600        2-3     6.5759 /_ -120.6   0.99635
   -                  3        3.798 /_   89.3   0.99671     6.600        3-1     6.5763 /_  119.3   0.99641
BUS76_C2 ............ 1       3.7943 /_  -30.7   0.99574     6.600        1-2     6.5695 /_   -0.7   0.99538
   -                  2       3.7941 /_ -150.6   0.99569     6.600        2-3     6.5759 /_ -120.6   0.99635
   -                  3        3.798 /_   89.3   0.99671     6.600        3-1     6.5763 /_  119.3   0.99641
BUS77_C2 ............ 1       3.7943 /_  -30.7   0.99574     6.600        1-2     6.5695 /_   -0.7   0.99538
   -                  2       3.7941 /_ -150.6   0.99569     6.600        2-3     6.5759 /_ -120.6   0.99635
   -                  3        3.798 /_   89.3   0.99671     6.600        3-1     6.5763 /_  119.3   0.99641
BUSCARGA_METEOROLOGIA 1      0.12656 /_  -60.7   0.99641     0.220        1-2    0.21906 /_  -30.7   0.99574
   -                  2      0.12643 /_  179.3   0.99538     0.220        2-3    0.21905 /_ -150.6   0.99569
   -                  3      0.12655 /_   59.4   0.99635     0.220        3-1    0.21928 /_   89.3   0.99671
BUS78_C2 ............ 1       3.7943 /_  -30.7   0.99574     6.600        1-2     6.5695 /_   -0.7   0.99538
   -                  2       3.7941 /_ -150.6   0.99569     6.600        2-3     6.5759 /_ -120.6   0.99635
   -                  3        3.798 /_   89.3   0.99671     6.600        3-1     6.5763 /_  119.3   0.99641
BUS79_C2 ............ 1       3.7937 /_  -30.7   0.99559     6.600        1-2     6.5685 /_   -0.7   0.99523
   -                  2       3.7935 /_ -150.6   0.99554     6.600        2-3      6.575 /_ -120.6   0.99622
   -                  3       3.7975 /_   89.3   0.99657     6.600        3-1     6.5753 /_  119.3   0.99626
BUS80_C2 ............ 1       3.7931 /_  -30.7   0.99543     6.600        1-2     6.5675 /_   -0.7   0.99508
   -                  2        3.793 /_ -150.6    0.9954     6.600        2-3     6.5741 /_ -120.6   0.99608
   -                  3       3.7969 /_   89.3   0.99644     6.600        3-1     6.5743 /_  119.3   0.99611
BUS81_C2 ............ 1       3.7925 /_  -30.7   0.99528     6.600        1-2     6.5665 /_   -0.7   0.99493
   -                  2       3.7925 /_ -150.6   0.99526     6.600        2-3     6.5732 /_ -120.6   0.99594
   -                  3       3.7964 /_   89.3    0.9963     6.600        3-1     6.5734 /_  119.3   0.99597
BUS82_C2 ............ 1        3.792 /_  -30.7   0.99513     6.600        1-2     6.5655 /_   -0.7   0.99478
   -                  2       3.7919 /_ -150.6   0.99512     6.600        2-3     6.5723 /_ -120.6   0.99581
   -                  3       3.7959 /_   89.3   0.99616     6.600        3-1     6.5724 /_  119.3   0.99582
BUS83_C2 ............ 1       3.7915 /_  -30.7     0.995     6.600        1-2     6.5647 /_   -0.7   0.99465
   -                  2       3.7915 /_ -150.6     0.995     6.600        2-3     6.5716 /_ -120.6   0.99569
   -                  3       3.7954 /_   89.3   0.99604     6.600        3-1     6.5716 /_  119.3   0.99569
BUS84_C2 ............ 1        3.791 /_  -30.7   0.99487     6.600        1-2     6.5639 /_   -0.7   0.99453
   -                  2        3.791 /_ -150.6   0.99488     6.600        2-3     6.5708 /_ -120.6   0.99558
   -                  3        3.795 /_   89.3   0.99592     6.600        3-1     6.5708 /_  119.3   0.99557
BUS85_C2 ............ 1       3.7905 /_  -30.7   0.99475     6.600        1-2     6.5631 /_   -0.7    0.9944
   -                  2       3.7906 /_ -150.6   0.99477     6.600        2-3     6.5701 /_ -120.6   0.99547
   -                  3       3.7945 /_   89.3   0.99581     6.600        3-1       6.57 /_  119.3   0.99545
BUS86_C2 ............ 1         3.79 /_  -30.7   0.99462     6.600        1-2     6.5622 /_   -0.7   0.99428
   -                  2       3.7901 /_ -150.6   0.99465     6.600        2-3     6.5693 /_ -120.6   0.99535
   -                  3       3.7941 /_   89.3   0.99569     6.600        3-1     6.5691 /_  119.3   0.99533
BUS87_C2 ............ 1       3.7895 /_  -30.7   0.99449     6.600        1-2     6.5614 /_   -0.7   0.99416
   -                  2       3.7897 /_ -150.6   0.99453     6.600        2-3     6.5686 /_ -120.6   0.99524
   -                  3       3.7937 /_   89.3   0.99558     6.600        3-1     6.5683 /_  119.3    0.9952
BUS88_C2 ............ 1        3.789 /_  -30.7   0.99436     6.600        1-2     6.5606 /_   -0.7   0.99403
   -                  2       3.7892 /_ -150.6   0.99441     6.600        2-3     6.5678 /_ -120.6   0.99513
   -                  3       3.7932 /_   89.3   0.99546     6.600        3-1     6.5675 /_  119.3   0.99508
BUS89_C2 ............ 1       3.7885 /_  -30.7   0.99421     6.600        1-2     6.5596 /_   -0.7   0.99388
   -                  2       3.7887 /_ -150.6   0.99427     6.600        2-3     6.5669 /_ -120.6   0.99499
   -                  3       3.7927 /_   89.3   0.99532     6.600        3-1     6.5666 /_  119.3   0.99493
BUS90_C2 ............ 1       3.7875 /_  -30.7   0.99396     6.600        1-2      6.558 /_   -0.7   0.99363
   -                  2       3.7878 /_ -150.6   0.99403     6.600        2-3     6.5654 /_ -120.7   0.99476
   -                  3       3.7918 /_   89.3   0.99509     6.600        3-1     6.5649 /_  119.3   0.99469
BUS91_C2 ............ 1       3.7846 /_  -30.7    0.9932     6.600        1-2     6.5531 /_   -0.7   0.99289
   -                  2       3.7851 /_ -150.7   0.99334     6.600        2-3      6.561 /_ -120.7   0.99409
   -                  3       3.7892 /_   89.3    0.9944     6.600        3-1     6.5601 /_  119.3   0.99396
SOURCEBUS_ICH ....... 1       3.7843 /_  -30.7   0.99313     6.600        1-2     6.5526 /_   -0.7   0.99282
   -                  2       3.7849 /_ -150.7   0.99327     6.600        2-3     6.5605 /_ -120.7   0.99402
   -                  3       3.7889 /_   89.3   0.99433     6.600        3-1     6.5597 /_  119.3   0.99389
SECUNDARIO_ICH ...... 1      0.12595 /_  -61.1   0.99159     0.220        1-2      0.218 /_  -31.1   0.99091
   -                  2      0.12581 /_  178.9   0.99048     0.220        2-3      0.218 /_ -151.0   0.99091
   -                  3      0.12599 /_   59.0    0.9919     0.220        3-1    0.21827 /_   88.9   0.99214
BUSCARGA_ICH ........ 1      0.12595 /_  -61.1   0.99159     0.220        1-2      0.218 /_  -31.1   0.99091
   -                  2      0.12581 /_  178.9   0.99048     0.220        2-3      0.218 /_ -151.0   0.99091
   -                  3      0.12599 /_   59.0    0.9919     0.220        3-1    0.21827 /_   88.9   0.99214
BUS92_C2 ............ 1       3.7838 /_  -30.7   0.99299     6.600        1-2     6.5517 /_   -0.7   0.99269
   -                  2       3.7844 /_ -150.7   0.99314     6.600        2-3     6.5598 /_ -120.7   0.99391
   -                  3       3.7885 /_   89.3   0.99421     6.600        3-1     6.5588 /_  119.3   0.99376
BUS93_C2 ............ 1       3.7837 /_  -30.7   0.99296     6.600        1-2     6.5515 /_   -0.7   0.99266
   -                  2       3.7843 /_ -150.7   0.99311     6.600        2-3     6.5596 /_ -120.7   0.99388
   -                  3       3.7884 /_   89.3   0.99418     6.600        3-1     6.5586 /_  119.3   0.99373
BUS94_C2 ............ 1       3.7836 /_  -30.7   0.99294     6.600        1-2     6.5514 /_   -0.7   0.99264
   -                  2       3.7842 /_ -150.7   0.99309     6.600        2-3     6.5595 /_ -120.7   0.99386
   -                  3       3.7883 /_   89.3   0.99416     6.600        3-1     6.5585 /_  119.3   0.99371
SECUNDARIO_SSOCIAL .. 1      0.12574 /_  -61.4   0.98994     0.220        1-2    0.21762 /_  -31.4   0.98917
   -                  2      0.12561 /_  178.6   0.98892     0.220        2-3    0.21758 /_ -151.3   0.98898
   -                  3      0.12584 /_   58.8   0.99073     0.220        3-1    0.21812 /_   88.6   0.99143
BUSCARGA_SERVICOS ... 1      0.12574 /_  -61.4   0.98994     0.220        1-2    0.21762 /_  -31.4   0.98917
   -                  2      0.12561 /_  178.6   0.98892     0.220        2-3    0.21758 /_ -151.3   0.98898
   -                  3      0.12584 /_   58.8   0.99073     0.220        3-1    0.21812 /_   88.6   0.99143
SOURCEBUS_PLANETARIO  1       3.7835 /_  -30.7    0.9929     6.600        1-2     6.5511 /_   -0.7   0.99259
   -                  2        3.784 /_ -150.7   0.99305     6.600        2-3     6.5592 /_ -120.7   0.99381
   -                  3       3.7881 /_   89.3   0.99412     6.600        3-1     6.5582 /_  119.3   0.99366
SECUNDARIO_PLANETARIO 1       0.1262 /_  -60.8   0.99353     0.220        1-2    0.21841 /_  -30.8   0.99277
   -                  2      0.12606 /_  179.2   0.99243     0.220        2-3    0.21844 /_ -150.8   0.99293
   -                  3       0.1262 /_   59.2   0.99358     0.220        3-1    0.21864 /_   89.2   0.99383
BUSCARGA_PLANETARIO . 1       0.1262 /_  -60.8   0.99353     0.220        1-2    0.21841 /_  -30.8   0.99277
   -                  2      0.12606 /_  179.2   0.99243     0.220        2-3    0.21844 /_ -150.8   0.99293
   -                  3       0.1262 /_   59.2   0.99358     0.220        3-1    0.21864 /_   89.2   0.99383
BUS95_C2 ............ 1       3.7826 /_  -30.7   0.99268     6.600        1-2     6.5497 /_   -0.7   0.99238
   -                  2       3.7833 /_ -150.7   0.99286     6.600        2-3      6.558 /_ -120.7   0.99363
   -                  3       3.7874 /_   89.3   0.99393     6.600        3-1     6.5568 /_  119.2   0.99345
BUS96_C2 ............ 1       3.7822 /_  -30.7   0.99256     6.600        1-2     6.5489 /_   -0.7   0.99226
   -                  2       3.7829 /_ -150.7   0.99275     6.600        2-3     6.5573 /_ -120.7   0.99353
   -                  3        3.787 /_   89.3   0.99382     6.600        3-1      6.556 /_  119.2   0.99334
BUS97_C2 ............ 1       3.7818 /_  -30.8   0.99246     6.600        1-2     6.5483 /_   -0.7   0.99217
   -                  2       3.7825 /_ -150.7   0.99266     6.600        2-3     6.5567 /_ -120.7   0.99344
   -                  3       3.7866 /_   89.3   0.99374     6.600        3-1     6.5554 /_  119.2   0.99324
BUS98_C2 ............ 1       3.7814 /_  -30.8   0.99235     6.600        1-2     6.5476 /_   -0.7   0.99206
   -                  2       3.7822 /_ -150.7   0.99256     6.600        2-3     6.5561 /_ -120.7   0.99335
   -                  3       3.7863 /_   89.3   0.99363     6.600        3-1     6.5547 /_  119.2   0.99314
BUS99_C2 ............ 1        3.781 /_  -30.8   0.99225     6.600        1-2     6.5469 /_   -0.7   0.99196
   -                  2       3.7818 /_ -150.7   0.99247     6.600        2-3     6.5555 /_ -120.7   0.99326
   -                  3       3.7859 /_   89.3   0.99355     6.600        3-1     6.5541 /_  119.2   0.99304
BUSCARGA_ILUMINACAO . 1      0.12591 /_  -62.2   0.99131     0.220        1-2    0.21791 /_  -32.2    0.9905
   -                  2      0.12578 /_  177.9   0.99024     0.220        2-3    0.21796 /_ -152.1   0.99072
   -                  3      0.12594 /_   57.9   0.99155     0.220        3-1    0.21821 /_   87.8   0.99188
BUS100_C2 ........... 1       3.7808 /_  -30.8   0.99219     6.600        1-2     6.5466 /_   -0.7   0.99191
   -                  2       3.7816 /_ -150.7   0.99242     6.600        2-3     6.5552 /_ -120.7   0.99322
   -                  3       3.7857 /_   89.3    0.9935     6.600        3-1     6.5537 /_  119.2   0.99299
BUS101_C2 ........... 1       3.7807 /_  -30.8   0.99219     6.600        1-2     6.5466 /_   -0.7    0.9919
   -                  2       3.7816 /_ -150.7   0.99241     6.600        2-3     6.5552 /_ -120.7   0.99321
   -                  3       3.7857 /_   89.3   0.99349     6.600        3-1     6.5537 /_  119.2   0.99298
BUS102_C2 ........... 1       3.7807 /_  -30.8   0.99218     6.600        1-2     6.5465 /_   -0.7    0.9919
   -                  2       3.7816 /_ -150.7   0.99241     6.600        2-3     6.5551 /_ -120.7    0.9932
   -                  3       3.7857 /_   89.3   0.99349     6.600        3-1     6.5536 /_  119.2   0.99298
BUS103_C2 ........... 1       3.7807 /_  -30.8   0.99217     6.600        1-2     6.5464 /_   -0.7   0.99188
   -                  2       3.7815 /_ -150.7   0.99239     6.600        2-3      6.555 /_ -120.7   0.99318
   -                  3       3.7856 /_   89.3   0.99347     6.600        3-1     6.5535 /_  119.2   0.99296
BUS104_C2 ........... 1       3.7806 /_  -30.8   0.99215     6.600        1-2     6.5463 /_   -0.7   0.99187
   -                  2       3.7815 /_ -150.7   0.99238     6.600        2-3     6.5549 /_ -120.7   0.99316
   -                  3       3.7855 /_   89.3   0.99345     6.600        3-1     6.5534 /_  119.2   0.99294
BUS105_C2 ........... 1       3.7806 /_  -30.8   0.99215     6.600        1-2     6.5463 /_   -0.7   0.99187
   -                  2       3.7815 /_ -150.7   0.99238     6.600        2-3     6.5549 /_ -120.7   0.99316
   -                  3       3.7855 /_   89.3   0.99345     6.600        3-1     6.5534 /_  119.2   0.99294
BUSCARGA_ECONOMIA ... 1      0.12615 /_  -61.0   0.99321     0.220        1-2     0.2183 /_  -31.0   0.99226
   -                  2      0.12602 /_  179.1   0.99215     0.220        2-3    0.21852 /_ -150.9   0.99327
   -                  3      0.12618 /_   59.0   0.99343     0.220        3-1    0.21852 /_   89.0   0.99326
BUS106_C2 ........... 1       3.7806 /_  -30.8   0.99215     6.600        1-2     6.5463 /_   -0.7   0.99187
   -                  2       3.7815 /_ -150.7   0.99238     6.600        2-3      6.555 /_ -120.7   0.99318
   -                  3       3.7856 /_   89.3   0.99347     6.600        3-1     6.5535 /_  119.2   0.99295
BUS107_C2 ........... 1       3.7804 /_  -30.8   0.99211     6.600        1-2      6.546 /_   -0.7   0.99182
   -                  2       3.7814 /_ -150.7   0.99235     6.600        2-3     6.5548 /_ -120.7   0.99315
   -                  3       3.7855 /_   89.3   0.99344     6.600        3-1     6.5532 /_  119.2   0.99291
BUS108_C2 ........... 1       3.7802 /_  -30.8   0.99206     6.600        1-2     6.5457 /_   -0.7   0.99178
   -                  2       3.7812 /_ -150.7   0.99231     6.600        2-3     6.5546 /_ -120.7   0.99312
   -                  3       3.7854 /_   89.3    0.9934     6.600        3-1     6.5529 /_  119.2   0.99287
BUS109_C2 ........... 1         3.78 /_  -30.8   0.99199     6.600        1-2     6.5453 /_   -0.7   0.99171
   -                  2        3.781 /_ -150.7   0.99226     6.600        2-3     6.5543 /_ -120.7   0.99307
   -                  3       3.7852 /_   89.3   0.99335     6.600        3-1     6.5525 /_  119.2   0.99281
BUS110_C2 ........... 1       3.7799 /_  -30.8   0.99197     6.600        1-2     6.5452 /_   -0.7    0.9917
   -                  2       3.7809 /_ -150.7   0.99224     6.600        2-3     6.5542 /_ -120.7   0.99306
   -                  3       3.7851 /_   89.3   0.99333     6.600        3-1     6.5524 /_  119.2   0.99279
BUS111_C2 ........... 1       3.7798 /_  -30.8   0.99193     6.600        1-2     6.5449 /_   -0.7   0.99166
   -                  2       3.7808 /_ -150.7   0.99221     6.600        2-3      6.554 /_ -120.7   0.99303
   -                  3        3.785 /_   89.3    0.9933     6.600        3-1     6.5522 /_  119.2   0.99275
BUS112_C2 ........... 1       3.7796 /_  -30.8   0.99189     6.600        1-2     6.5447 /_   -0.7   0.99162
   -                  2       3.7807 /_ -150.7   0.99218     6.600        2-3     6.5538 /_ -120.7     0.993
   -                  3       3.7849 /_   89.3   0.99327     6.600        3-1     6.5519 /_  119.2   0.99271
BUS113_C2 ........... 1       3.7794 /_  -30.8   0.99185     6.600        1-2     6.5444 /_   -0.7   0.99158
   -                  2       3.7806 /_ -150.7   0.99214     6.600        2-3     6.5536 /_ -120.7   0.99297
   -                  3       3.7847 /_   89.3   0.99323     6.600        3-1     6.5516 /_  119.2   0.99267
SOURCEBUS_ODONTOLOGIA 1       3.7794 /_  -30.8   0.99183     6.600        1-2     6.5443 /_   -0.7   0.99157
   -                  2       3.7805 /_ -150.7   0.99213     6.600        2-3     6.5535 /_ -120.7   0.99296
   -                  3       3.7847 /_   89.3   0.99322     6.600        3-1     6.5515 /_  119.2   0.99266
SECUNDARIO_ODONTO ... 1      0.12585 /_  -61.2   0.99083     0.220        1-2    0.21777 /_  -31.1   0.98988
   -                  2      0.12573 /_  178.9   0.98987     0.220        2-3    0.21785 /_ -151.0   0.99024
   -                  3      0.12601 /_   59.1   0.99207     0.220        3-1    0.21838 /_   88.9   0.99265
BUSCARGA_ODONTOLOGIA  1      0.12585 /_  -61.2   0.99083     0.220        1-2    0.21777 /_  -31.1   0.98988
   -                  2      0.12573 /_  178.9   0.98987     0.220        2-3    0.21785 /_ -151.0   0.99024
   -                  3      0.12601 /_   59.1   0.99207     0.220        3-1    0.21838 /_   88.9   0.99265
BUS114_C2 ........... 1       3.7799 /_  -30.8   0.99197     6.600        1-2     6.5452 /_   -0.7    0.9917
   -                  2       3.7809 /_ -150.7   0.99224     6.600        2-3     6.5542 /_ -120.7   0.99306
   -                  3       3.7851 /_   89.3   0.99334     6.600        3-1     6.5524 /_  119.2   0.99279
BUS115_C2 ........... 1       3.7799 /_  -30.8   0.99196     6.600        1-2     6.5451 /_   -0.7   0.99169
   -                  2       3.7809 /_ -150.7   0.99223     6.600        2-3     6.5542 /_ -120.7   0.99306
   -                  3       3.7851 /_   89.3   0.99333     6.600        3-1     6.5524 /_  119.2   0.99278
BUSCARGA_COMUNICACAO  1      0.12622 /_  -60.8   0.99374     0.220        1-2    0.21841 /_  -30.8   0.99277
   -                  2      0.12605 /_  179.3   0.99235     0.220        2-3    0.21844 /_ -150.7    0.9929
   -                  3      0.12622 /_   59.3   0.99373     0.220        3-1    0.21871 /_   89.3   0.99415
BUS116_C2 ........... 1       3.7798 /_  -30.8   0.99194     6.600        1-2      6.545 /_   -0.7   0.99167
   -                  2       3.7809 /_ -150.7   0.99222     6.600        2-3     6.5541 /_ -120.7   0.99304
   -                  3       3.7851 /_   89.3   0.99332     6.600        3-1     6.5523 /_  119.2   0.99277
BUS117_C2 ........... 1       3.7797 /_  -30.8   0.99192     6.600        1-2     6.5449 /_   -0.7   0.99164
   -                  2       3.7808 /_ -150.7    0.9922     6.600        2-3      6.554 /_ -120.7   0.99303
   -                  3        3.785 /_   89.3    0.9933     6.600        3-1     6.5521 /_  119.2   0.99275
BUS118_C2 ........... 1       3.7796 /_  -30.8    0.9919     6.600        1-2     6.5447 /_   -0.7   0.99162
   -                  2       3.7807 /_ -150.7   0.99218     6.600        2-3     6.5539 /_ -120.7   0.99301
   -                  3       3.7849 /_   89.3   0.99329     6.600        3-1      6.552 /_  119.2   0.99273
BUS119_C2 ........... 1       3.7794 /_  -30.8   0.99185     6.600        1-2     6.5444 /_   -0.7   0.99157
   -                  2       3.7806 /_ -150.7   0.99214     6.600        2-3     6.5537 /_ -120.7   0.99298
   -                  3       3.7848 /_   89.3   0.99325     6.600        3-1     6.5517 /_  119.2   0.99269
BUS120_C2 ........... 1       3.7793 /_  -30.8   0.99181     6.600        1-2     6.5441 /_   -0.7   0.99154
   -                  2       3.7804 /_ -150.7   0.99211     6.600        2-3     6.5535 /_ -120.7   0.99296
   -                  3       3.7847 /_   89.3   0.99323     6.600        3-1     6.5515 /_  119.2   0.99266
BUS121_C2 ........... 1       3.7792 /_  -30.8   0.99178     6.600        1-2     6.5439 /_   -0.7    0.9915
   -                  2       3.7803 /_ -150.7   0.99208     6.600        2-3     6.5533 /_ -120.7   0.99293
   -                  3       3.7846 /_   89.3   0.99321     6.600        3-1     6.5513 /_  119.2   0.99263
BUS122_C2 ........... 1        3.779 /_  -30.8   0.99174     6.600        1-2     6.5437 /_   -0.7   0.99146
   -                  2       3.7802 /_ -150.7   0.99205     6.600        2-3     6.5532 /_ -120.7   0.99291
   -                  3       3.7845 /_   89.3   0.99318     6.600        3-1     6.5511 /_  119.2    0.9926
BUS123_C2 ........... 1       3.7789 /_  -30.8   0.99171     6.600        1-2     6.5435 /_   -0.7   0.99143
   -                  2       3.7801 /_ -150.7   0.99202     6.600        2-3     6.5531 /_ -120.7   0.99289
   -                  3       3.7845 /_   89.3   0.99316     6.600        3-1      6.551 /_  119.2   0.99257
BUS124_C2 ........... 1       3.7788 /_  -30.8   0.99169     6.600        1-2     6.5433 /_   -0.7   0.99141
   -                  2       3.7801 /_ -150.7   0.99201     6.600        2-3      6.553 /_ -120.7   0.99287
   -                  3       3.7844 /_   89.3   0.99315     6.600        3-1     6.5509 /_  119.2   0.99256
BUS125_C2 ........... 1       3.7787 /_  -30.8   0.99166     6.600        1-2     6.5432 /_   -0.7   0.99139
   -                  2         3.78 /_ -150.7   0.99199     6.600        2-3     6.5529 /_ -120.7   0.99286
   -                  3       3.7843 /_   89.3   0.99313     6.600        3-1     6.5507 /_  119.2   0.99253
BUS126_C2 ........... 1       3.7786 /_  -30.8   0.99163     6.600        1-2     6.5429 /_   -0.7   0.99135
   -                  2       3.7799 /_ -150.7   0.99196     6.600        2-3     6.5527 /_ -120.7   0.99283
   -                  3       3.7842 /_   89.3   0.99311     6.600        3-1     6.5505 /_  119.2    0.9925
BUS127_C2 ........... 1       3.7785 /_  -30.8   0.99159     6.600        1-2     6.5427 /_   -0.7   0.99132
   -                  2       3.7798 /_ -150.7   0.99193     6.600        2-3     6.5526 /_ -120.7   0.99281
   -                  3       3.7842 /_   89.3   0.99309     6.600        3-1     6.5503 /_  119.2   0.99248
BUS128_C2 ........... 1       3.7785 /_  -30.8   0.99159     6.600        1-2     6.5427 /_   -0.7   0.99132
   -                  2       3.7798 /_ -150.7   0.99193     6.600        2-3     6.5526 /_ -120.7   0.99281
   -                  3       3.7842 /_   89.3   0.99309     6.600        3-1     6.5503 /_  119.2   0.99248
BUSCARGA_BOMBEIROS .. 1       0.1254 /_  -61.5   0.98725     0.220        1-2    0.21713 /_  -31.6   0.98696
   -                  2      0.12512 /_  178.3   0.98509     0.220        2-3    0.21662 /_ -151.3   0.98464
   -                  3      0.12577 /_   58.9   0.99022     0.220        3-1    0.21801 /_   88.6   0.99094
BUS126_C2_BT ........ 1       0.1254 /_  -61.5   0.98725     0.220        1-2    0.21713 /_  -31.6   0.98696
   -                  2      0.12512 /_  178.3   0.98509     0.220        2-3    0.21662 /_ -151.3   0.98464
   -                  3      0.12577 /_   58.9   0.99022     0.220        3-1    0.21801 /_   88.6   0.99094
BUS129_C2_BT ........ 1       0.1254 /_  -61.5   0.98725     0.220        1-2    0.21713 /_  -31.6   0.98696
   -                  2      0.12512 /_  178.3   0.98509     0.220        2-3    0.21662 /_ -151.3   0.98464
   -                  3      0.12577 /_   58.9   0.99022     0.220        3-1    0.21801 /_   88.6   0.99094
BUS130_C2_BT ........ 1       0.1254 /_  -61.5   0.98725     0.220        1-2    0.21713 /_  -31.6   0.98696
   -                  2      0.12512 /_  178.3   0.98509     0.220        2-3    0.21662 /_ -151.3   0.98464
   -                  3      0.12577 /_   58.9   0.99022     0.220        3-1    0.21801 /_   88.6   0.99094
BUS131_C2_BT ........ 1       0.1254 /_  -61.5   0.98725     0.220        1-2    0.21713 /_  -31.6   0.98696
   -                  2      0.12512 /_  178.3   0.98509     0.220        2-3    0.21662 /_ -151.3   0.98464
   -                  3      0.12577 /_   58.9   0.99022     0.220        3-1    0.21801 /_   88.6   0.99094
BUS132_C2_BT ........ 1       0.1254 /_  -61.5   0.98725     0.220        1-2    0.21713 /_  -31.6   0.98696
   -                  2      0.12512 /_  178.3   0.98509     0.220        2-3    0.21662 /_ -151.3   0.98464
   -                  3      0.12577 /_   58.9   0.99022     0.220        3-1    0.21801 /_   88.6   0.99094
BUS133_C2_BT ........ 1       0.1254 /_  -61.5   0.98725     0.220        1-2    0.21713 /_  -31.6   0.98696
   -                  2      0.12512 /_  178.3   0.98509     0.220        2-3    0.21662 /_ -151.3   0.98464
   -                  3      0.12577 /_   58.9   0.99022     0.220        3-1    0.21801 /_   88.6   0.99094
BUSCARGA_GUARITA .... 1       0.1254 /_  -61.5   0.98725     0.220        1-2    0.21713 /_  -31.6   0.98696
   -                  2      0.12512 /_  178.3   0.98509     0.220        2-3    0.21662 /_ -151.3   0.98464
   -                  3      0.12577 /_   58.9   0.99022     0.220        3-1    0.21801 /_   88.6   0.99094
